LTspice 24.1.10 for Windows
Circuit: C:\users\andrei\Documents\SurseAlimentare\Proiect\IncercareFinala.net
Start Time: Sun Jan 18 20:29:19 2026
solver = Normal
Maximum thread count: 12
tnom = 27
temp = 27
method = trap
Direct Newton iteration for .op point succeeded.
Total elapsed time: 46.650 seconds.

Files loaded:
C:\users\andrei\Documents\SurseAlimentare\Proiect\IncercareFinala.net
C:\users\andrei\AppData\Local\LTspice\lib\cmp\standard.dio
C:\users\andrei\AppData\Local\LTspice\lib\cmp\standard.bjt
C:\users\andrei\AppData\Local\LTspice\lib\cmp\standard.mos
C:\users\andrei\Documents\SurseAlimentare\Proiect\LM723.txt
C:\users\andrei\AppData\Local\LTspice\lib\sub\Contrib\Toshiba\DIODE\TBAT54_enc.lib
C:\users\andrei\AppData\Local\LTspice\lib\sub\LT1083.lib
C:\users\andrei\AppData\Local\LTspice\lib\sub\LTC.lib
C:\users\andrei\AppData\Local\LTspice\lib\sub\LTC4446.sub

