LTspice 24.0.12 for Windows
Circuit: * C:\Users\botaa\Desktop\Proiect_Scia\AnalizaTransient.asc
Start Time: Wed Jan  8 14:55:31 2025
solver = Normal
Maximum thread count: 4
tnom = 27
temp = 27
method = modified trap
WARNING: Specified period is not longer than the sum of Trise, Tfall, and Ton for va3.  Increasing period to 0.004
Direct Newton iteration failed to find .op point.  (Use ".option noopiter" to skip.)
Starting Gmin stepping
Gmin = 10
Gmin = 1.07374
Gmin = 0.115292
Gmin = 0.0123794
Gmin = 0.00132923
vernier = 0.5
vernier = 0.25
vernier = 0.125
vernier = 0.0625
Gmin = 0.00100083
vernier = 0.03125
vernier = 0.015625
vernier = 0.0078125
vernier = 0.00390625
vernier = 0.00195312
Gmin = 0.00100083
vernier = 0.000976562
vernier = 0.000488281
Gmin = 0
Gmin stepping failed

Starting source stepping with srcstepmethod=0
Source Step = 3.0303%
Source Step = 33.3333%
Source Step = 63.6364%
Source Step = 93.9394%
Source stepping succeeded in finding the operating point.

N-Period=1
Fourier components of V(vout_etaj1transient)
DC component:-2.91008e-05

Harmonic	Frequency	 Fourier 	Normalized	 Phase  	Normalized
 Number 	  [Hz]   	Component	 Component	[degree]	Phase [deg]
    1   	 4.000e+3	 1.116e+0	 1.000e+0	   90.29°	    0.00°
    2   	 8.000e+3	 1.458e-5	 1.306e-5	  122.64°	   32.35°
    3   	 1.200e+4	 4.106e-5	 3.678e-5	   82.10°	   -8.19°
    4   	 1.600e+4	 1.572e-5	 1.408e-5	 -115.62°	 -205.91°
    5   	 2.000e+4	 8.561e-5	 7.668e-5	   92.77°	    2.48°
    6   	 2.400e+4	 1.958e-5	 1.754e-5	   26.47°	  -63.82°
    7   	 2.800e+4	 5.177e-5	 4.637e-5	   19.75°	  -70.54°
    8   	 3.200e+4	 1.199e-5	 1.074e-5	 -157.49°	 -247.78°
    9   	 3.600e+4	 5.701e-5	 5.107e-5	   29.33°	  -60.96°
Partial Harmonic Distortion: 0.011306%
Total Harmonic Distortion:   0.048896%


Total elapsed time: 2.306 seconds.

