LTspice 24.0.12 for Windows
Circuit: * C:\Users\botaa\Desktop\Proiect_Scia\AnalizaAC.asc
Start Time: Mon Jan  6 18:52:13 2025
solver = Normal
Maximum thread count: 4
tnom = 27
temp = 27
method = modified trap
Direct Newton iteration failed to find .op point.  (Use ".option noopiter" to skip.)
Starting Gmin stepping
Gmin = 10
Gmin = 1.07374
Gmin = 0.115292
Gmin = 0.0123794
Gmin = 0.00132923
vernier = 0.5
vernier = 0.25
vernier = 0.125
vernier = 0.0625
Gmin = 0.00100083
vernier = 0.03125
vernier = 0.015625
vernier = 0.0078125
vernier = 0.00390625
vernier = 0.00195312
Gmin = 0.00100083
vernier = 0.000976562
vernier = 0.000488281
Gmin = 0
Gmin stepping failed

Starting source stepping with srcstepmethod=0
Source Step = 3.0303%
Source Step = 33.3333%
vernier = 0.25
Source Step = 33.2386%
Source Step = 33.7121%
Source Step = 34.1856%
Source Step = 34.6591%
Source Step = 35.1326%
vernier = 0.0234375
Source Step = 35.6297%
Source Step = 36.34%
Source Step = 37.0502%
Source Step = 37.7604%
Source Step = 38.4706%
Source Step = 39.1809%
vernier = 0.0351562
Source Step = 40.2462%
Source Step = 41.3116%
Source Step = 42.3769%
Source Step = 43.4422%
Source Step = 44.5076%
vernier = 0.0527344
Source Step = 46.0523%
Source Step = 47.6503%
Source Step = 49.2483%
Source Step = 50.8464%
Source Step = 52.4444%
vernier = 0.0791016
Source Step = 54.6816%
Source Step = 57.0786%
Source Step = 59.4756%
Source Step = 61.8726%
Source Step = 64.2696%
vernier = 0.118652
Source Step = 67.5056%
Source Step = 71.1011%
Source Step = 74.6967%
Source Step = 78.2922%
Source Step = 81.8877%
vernier = 0.177979
Source Step = 86.5619%
Source Step = 91.9552%
Source Step = 97.3485%
Source stepping succeeded in finding the operating point.

Total elapsed time: 3.167 seconds.

